120

C   -0.7   -3.63730669589   0.0   A
C   -1.4   -2.4248711306   0.0   B
C   -2.8   -2.4248711306   0.0   A
C   -3.5   -3.63730669589   0.0   B
C   -2.8   -4.84974226119   0.0   A
C   -1.4   -4.84974226119   0.0   B
C   3.5   -3.63730669589   0.0   A
C   2.8   -2.4248711306   0.0   B
C   1.4   -2.4248711306   0.0   A
C   0.7   -3.63730669589   0.0   B
C   1.4   -4.84974226119   0.0   A
C   2.8   -4.84974226119   0.0   B
C   -2.8   0.0   0.0   A
C   -3.5   1.2124355653   0.0   B
C   -4.9   1.2124355653   0.0   A
C   -5.6   0.0   0.0   B
C   -4.9   -1.2124355653   0.0   A
C   -3.5   -1.2124355653   0.0   B
C   1.4   0.0   0.0   A
C   0.7   1.2124355653   0.0   B
C   -0.7   1.2124355653   0.0   A
C   -1.4   0.0   0.0   B
C   -0.7   -1.2124355653   0.0   A
C   0.7   -1.2124355653   0.0   B
C   5.6   0.0   0.0   A
C   4.9   1.2124355653   0.0   B
C   3.5   1.2124355653   0.0   A
C   2.8   0.0   0.0   B
C   3.5   -1.2124355653   0.0   A
C   4.9   -1.2124355653   0.0   B
C   -0.7   3.63730669589   0.0   A
C   -1.4   4.84974226119   0.0   B
C   -2.8   4.84974226119   0.0   A
C   -3.5   3.63730669589   0.0   B
C   -2.8   2.4248711306   0.0   A
C   -1.4   2.4248711306   0.0   B
C   3.5   3.63730669589   0.0   A
C   2.8   4.84974226119   0.0   B
C   1.4   4.84974226119   0.0   A
C   0.7   3.63730669589   0.0   B
C   1.4   2.4248711306   0.0   A
C   2.8   2.4248711306   0.0   B
H   -4.9   -3.63730669589   0.0   A
H   -3.5   -6.06217782649   0.0   B
H   -0.7   -6.06217782649   0.0   A
H   4.9   -3.63730669589   0.0   B
H   0.7   -6.06217782649   0.0   A
H   3.5   -6.06217782649   0.0   B
H   -5.6   2.4248711306   0.0   A
H   -7.0   -4.4408920985e-16   0.0   B
H   -5.6   -2.4248711306   0.0   A
H   7.0   -4.4408920985e-16   0.0   B
H   5.6   2.4248711306   0.0   A
H   5.6   -2.4248711306   0.0   B
H   -0.7   6.06217782649   0.0   A
H   -3.5   6.06217782649   0.0   B
H   -4.9   3.63730669589   0.0   A
H   4.9   3.63730669589   0.0   B
H   3.5   6.06217782649   0.0   A
H   0.7   6.06217782649   0.0   B
C   0.7   -3.63730669589   1.4   A
C   2.22044604925e-16   -2.4248711306   1.4   B
C   -1.4   -2.4248711306   1.4   A
C   -2.1   -3.63730669589   1.4   B
C   -1.4   -4.84974226119   1.4   A
C   2.22044604925e-16   -4.84974226119   1.4   B
C   4.9   -3.63730669589   1.4   A
C   4.2   -2.4248711306   1.4   B
C   2.8   -2.4248711306   1.4   A
C   2.1   -3.63730669589   1.4   B
C   2.8   -4.84974226119   1.4   A
C   4.2   -4.84974226119   1.4   B
C   -1.4   0.0   1.4   A
C   -2.1   1.2124355653   1.4   B
C   -3.5   1.2124355653   1.4   A
C   -4.2   0.0   1.4   B
C   -3.5   -1.2124355653   1.4   A
C   -2.1   -1.2124355653   1.4   B
C   2.8   0.0   1.4   A
C   2.1   1.2124355653   1.4   B
C   0.7   1.2124355653   1.4   A
C   0.0   0.0   1.4   B
C   0.7   -1.2124355653   1.4   A
C   2.1   -1.2124355653   1.4   B
C   7.0   0.0   1.4   A
C   6.3   1.2124355653   1.4   B
C   4.9   1.2124355653   1.4   A
C   4.2   0.0   1.4   B
C   4.9   -1.2124355653   1.4   A
C   6.3   -1.2124355653   1.4   B
C   0.7   3.63730669589   1.4   A
C   2.22044604925e-16   4.84974226119   1.4   B
C   -1.4   4.84974226119   1.4   A
C   -2.1   3.63730669589   1.4   B
C   -1.4   2.4248711306   1.4   A
C   2.22044604925e-16   2.4248711306   1.4   B
C   4.9   3.63730669589   1.4   A
C   4.2   4.84974226119   1.4   B
C   2.8   4.84974226119   1.4   A
C   2.1   3.63730669589   1.4   B
C   2.8   2.4248711306   1.4   A
C   4.2   2.4248711306   1.4   B
H   -3.5   -3.63730669589   1.4   A
H   -2.1   -6.06217782649   1.4   B
H   0.7   -6.06217782649   1.4   A
H   6.3   -3.63730669589   1.4   B
H   2.1   -6.06217782649   1.4   A
H   4.9   -6.06217782649   1.4   B
H   -4.2   2.4248711306   1.4   A
H   -5.6   -4.4408920985e-16   1.4   B
H   -4.2   -2.4248711306   1.4   A
H   8.4   -4.4408920985e-16   1.4   B
H   7.0   2.4248711306   1.4   A
H   7.0   -2.4248711306   1.4   B
H   0.7   6.06217782649   1.4   A
H   -2.1   6.06217782649   1.4   B
H   -3.5   3.63730669589   1.4   A
H   6.3   3.63730669589   1.4   B
H   4.9   6.06217782649   1.4   A
H   2.1   6.06217782649   1.4   B
