12

C   1.4   0.0   0.0   A
C   0.7   1.2124355653   0.0   B
C   -0.7   1.2124355653   0.0   A
C   -1.4   0.0   0.0   B
C   -0.7   -1.2124355653   0.0   A
C   0.7   -1.2124355653   0.0   B
H   2.8   -3.33066907388e-16   0.0   A
H   1.4   2.4248711306   0.0   B
H   -1.4   2.4248711306   0.0   A
H   -2.8   -3.33066907388e-16   0.0   B
H   -1.4   -2.4248711306   0.0   A
H   1.4   -2.4248711306   0.0   B
