144

C   -2.8   -7.27461339179   0.0   1
C   -3.5   -6.06217782649   0.0   -1
C   -4.9   -6.06217782649   0.0   1
C   -5.6   -7.27461339179   0.0   -1
C   -4.9   -8.48704895709   0.0   1
C   -3.5   -8.48704895709   0.0   -1
C   1.4   -7.27461339179   0.0   1
C   0.7   -6.06217782649   0.0   -1
C   -0.7   -6.06217782649   0.0   1
C   -1.4   -7.27461339179   0.0   -1
C   -0.7   -8.48704895709   0.0   1
C   0.7   -8.48704895709   0.0   -1
C   5.6   -7.27461339179   0.0   1
C   4.9   -6.06217782649   0.0   -1
C   3.5   -6.06217782649   0.0   1
C   2.8   -7.27461339179   0.0   -1
C   3.5   -8.48704895709   0.0   1
C   4.9   -8.48704895709   0.0   -1
C   -4.9   -3.63730669589   0.0   1
C   -5.6   -2.4248711306   0.0   -1
C   -7.0   -2.4248711306   0.0   1
C   -7.7   -3.63730669589   0.0   -1
C   -7.0   -4.84974226119   0.0   1
C   -5.6   -4.84974226119   0.0   -1
C   -0.7   -3.63730669589   0.0   1
C   -1.4   -2.4248711306   0.0   -1
C   -2.8   -2.4248711306   0.0   1
C   -3.5   -3.63730669589   0.0   -1
C   -2.8   -4.84974226119   0.0   1
C   -1.4   -4.84974226119   0.0   -1
C   3.5   -3.63730669589   0.0   1
C   2.8   -2.4248711306   0.0   -1
C   1.4   -2.4248711306   0.0   1
C   0.7   -3.63730669589   0.0   -1
C   1.4   -4.84974226119   0.0   1
C   2.8   -4.84974226119   0.0   -1
C   7.7   -3.63730669589   0.0   1
C   7.0   -2.4248711306   0.0   -1
C   5.6   -2.4248711306   0.0   1
C   4.9   -3.63730669589   0.0   -1
C   5.6   -4.84974226119   0.0   1
C   7.0   -4.84974226119   0.0   -1
C   -7.0   0.0   0.0   1
C   -7.7   1.2124355653   0.0   -1
C   -9.1   1.2124355653   0.0   1
C   -9.8   0.0   0.0   -1
C   -9.1   -1.2124355653   0.0   1
C   -7.7   -1.2124355653   0.0   -1
C   -2.8   0.0   0.0   1
C   -3.5   1.2124355653   0.0   -1
C   -4.9   1.2124355653   0.0   1
C   -5.6   0.0   0.0   -1
C   -4.9   -1.2124355653   0.0   1
C   -3.5   -1.2124355653   0.0   -1
C   1.4   0.0   0.0   1
C   0.7   1.2124355653   0.0   -1
C   -0.7   1.2124355653   0.0   1
C   -1.4   0.0   0.0   -1
C   -0.7   -1.2124355653   0.0   1
C   0.7   -1.2124355653   0.0   -1
C   5.6   0.0   0.0   1
C   4.9   1.2124355653   0.0   -1
C   3.5   1.2124355653   0.0   1
C   2.8   0.0   0.0   -1
C   3.5   -1.2124355653   0.0   1
C   4.9   -1.2124355653   0.0   -1
C   9.8   0.0   0.0   1
C   9.1   1.2124355653   0.0   -1
C   7.7   1.2124355653   0.0   1
C   7.0   0.0   0.0   -1
C   7.7   -1.2124355653   0.0   1
C   9.1   -1.2124355653   0.0   -1
C   -4.9   3.63730669589   0.0   1
C   -5.6   4.84974226119   0.0   -1
C   -7.0   4.84974226119   0.0   1
C   -7.7   3.63730669589   0.0   -1
C   -7.0   2.4248711306   0.0   1
C   -5.6   2.4248711306   0.0   -1
C   -0.7   3.63730669589   0.0   1
C   -1.4   4.84974226119   0.0   -1
C   -2.8   4.84974226119   0.0   1
C   -3.5   3.63730669589   0.0   -1
C   -2.8   2.4248711306   0.0   1
C   -1.4   2.4248711306   0.0   -1
C   3.5   3.63730669589   0.0   1
C   2.8   4.84974226119   0.0   -1
C   1.4   4.84974226119   0.0   1
C   0.7   3.63730669589   0.0   -1
C   1.4   2.4248711306   0.0   1
C   2.8   2.4248711306   0.0   -1
C   7.7   3.63730669589   0.0   1
C   7.0   4.84974226119   0.0   -1
C   5.6   4.84974226119   0.0   1
C   4.9   3.63730669589   0.0   -1
C   5.6   2.4248711306   0.0   1
C   7.0   2.4248711306   0.0   -1
C   -2.8   7.27461339179   0.0   1
C   -3.5   8.48704895709   0.0   -1
C   -4.9   8.48704895709   0.0   1
C   -5.6   7.27461339179   0.0   -1
C   -4.9   6.06217782649   0.0   1
C   -3.5   6.06217782649   0.0   -1
C   1.4   7.27461339179   0.0   1
C   0.7   8.48704895709   0.0   -1
C   -0.7   8.48704895709   0.0   1
C   -1.4   7.27461339179   0.0   -1
C   -0.7   6.06217782649   0.0   1
C   0.7   6.06217782649   0.0   -1
C   5.6   7.27461339179   0.0   1
C   4.9   8.48704895709   0.0   -1
C   3.5   8.48704895709   0.0   1
C   2.8   7.27461339179   0.0   -1
C   3.5   6.06217782649   0.0   1
C   4.9   6.06217782649   0.0   -1
H   -7.0   -7.27461339179   0.0   1
H   -5.6   -9.69948452239   0.0   -1
H   -2.8   -9.69948452239   0.0   1
H   -1.4   -9.69948452239   0.0   -1
H   1.4   -9.69948452239   0.0   1
H   7.0   -7.27461339179   0.0   -1
H   2.8   -9.69948452239   0.0   -1
H   5.6   -9.69948452239   0.0   1
H   -9.1   -3.63730669589   0.0   1
H   -7.7   -6.06217782649   0.0   -1
H   9.1   -3.63730669589   0.0   -1
H   7.7   -6.06217782649   0.0   1
H   -9.8   2.4248711306   0.0   -1
H   -11.2   -3.21964677141e-15   0.0   1
H   -9.8   -2.4248711306   0.0   -1
H   11.2   -3.21964677141e-15   0.0   -1
H   9.8   2.4248711306   0.0   1
H   9.8   -2.4248711306   0.0   1
H   -7.7   6.06217782649   0.0   -1
H   -9.1   3.63730669589   0.0   1
H   9.1   3.63730669589   0.0   -1
H   7.7   6.06217782649   0.0   1
H   -2.8   9.69948452239   0.0   1
H   -5.6   9.69948452239   0.0   -1
H   -7.0   7.27461339179   0.0   1
H   1.4   9.69948452239   0.0   1
H   -1.4   9.69948452239   0.0   -1
H   7.0   7.27461339179   0.0   -1
H   5.6   9.69948452239   0.0   1
H   2.8   9.69948452239   0.0   -1
