12
[2.1,3.63730669589,0.0][4.2,0.0,0.0]
C   1.4   0.0   0.0   1
C   0.7   1.2124355653   0.0   -1
C   -0.7   1.2124355653   0.0   1
C   -1.4   0.0   0.0   -1
C   -0.7   -1.2124355653   0.0   1
C   0.7   -1.2124355653   0.0   -1
C   2.8   0.0   1.4   1
C   2.1   1.2124355653   1.4   -1
C   0.7   1.2124355653   1.4   1
C   0.0   0.0   1.4   -1
C   0.7   -1.2124355653   1.4   1
C   2.1   -1.2124355653   1.4   -1
