366

C   -39.2   -3.6373066959   0.0
C   -40.6   -3.6373066959   0.0
C   -35.0   -3.6373066959   0.0
C   -36.4   -3.6373066959   0.0
C   -30.8   -3.6373066959   0.0
C   -32.2   -3.6373066959   0.0
C   -26.6   -3.6373066959   0.0
C   -28.0   -3.6373066959   0.0
C   -22.4   -3.6373066959   0.0
C   -23.8   -3.6373066959   0.0
C   -18.2   -3.6373066959   0.0
C   -19.6   -3.6373066959   0.0
C   -14.0   -3.6373066959   0.0
C   -15.4   -3.6373066959   0.0
C   -9.8   -3.6373066959   0.0
C   -11.2   -3.6373066959   0.0
C   -5.6   -3.6373066959   0.0
C   -7.0   -3.6373066959   0.0
C   -1.4   -3.6373066959   0.0
C   -2.8   -3.6373066959   0.0
C   2.8   -3.6373066959   0.0
C   1.4   -3.6373066959   0.0
C   7.0   -3.6373066959   0.0
C   5.6   -3.6373066959   0.0
C   11.2   -3.6373066959   0.0
C   9.8   -3.6373066959   0.0
C   15.4   -3.6373066959   0.0
C   14.0   -3.6373066959   0.0
C   19.6   -3.6373066959   0.0
C   18.2   -3.6373066959   0.0
C   23.8   -3.6373066959   0.0
C   22.4   -3.6373066959   0.0
C   28.0   -3.6373066959   0.0
C   26.6   -3.6373066959   0.0
C   32.2   -3.6373066959   0.0
C   30.8   -3.6373066959   0.0
C   36.4   -3.6373066959   0.0
C   35.0   -3.6373066959   0.0
C   40.6   -3.6373066959   0.0
C   39.2   -3.6373066959   0.0
C   -38.5   -2.4248711306   0.0
C   -39.2   -1.2124355653   0.0
C   -40.6   -1.2124355653   0.0
C   -41.3   -2.4248711306   0.0
C   -34.3   -2.4248711306   0.0
C   -35.0   -1.2124355653   0.0
C   -36.4   -1.2124355653   0.0
C   -37.1   -2.4248711306   0.0
C   -30.1   -2.4248711306   0.0
C   -30.8   -1.2124355653   0.0
C   -32.2   -1.2124355653   0.0
C   -32.9   -2.4248711306   0.0
C   -25.9   -2.4248711306   0.0
C   -26.6   -1.2124355653   0.0
C   -28.0   -1.2124355653   0.0
C   -28.7   -2.4248711306   0.0
C   -21.7   -2.4248711306   0.0
C   -22.4   -1.2124355653   0.0
C   -23.8   -1.2124355653   0.0
C   -24.5   -2.4248711306   0.0
C   -17.5   -2.4248711306   0.0
C   -18.2   -1.2124355653   0.0
C   -19.6   -1.2124355653   0.0
C   -20.3   -2.4248711306   0.0
C   -13.3   -2.4248711306   0.0
C   -14.0   -1.2124355653   0.0
C   -15.4   -1.2124355653   0.0
C   -16.1   -2.4248711306   0.0
C   -9.1   -2.4248711306   0.0
C   -9.8   -1.2124355653   0.0
C   -11.2   -1.2124355653   0.0
C   -11.9   -2.4248711306   0.0
C   -4.9   -2.4248711306   0.0
C   -5.6   -1.2124355653   0.0
C   -7.0   -1.2124355653   0.0
C   -7.7   -2.4248711306   0.0
C   -0.7   -2.4248711306   0.0
C   -1.4   -1.2124355653   0.0
C   -2.8   -1.2124355653   0.0
C   -3.5   -2.4248711306   0.0
C   3.5   -2.4248711306   0.0
C   2.8   -1.2124355653   0.0
C   1.4   -1.2124355653   0.0
C   0.7   -2.4248711306   0.0
C   7.7   -2.4248711306   0.0
C   7.0   -1.2124355653   0.0
C   5.6   -1.2124355653   0.0
C   4.9   -2.4248711306   0.0
C   11.9   -2.4248711306   0.0
C   11.2   -1.2124355653   0.0
C   9.8   -1.2124355653   0.0
C   9.1   -2.4248711306   0.0
C   16.1   -2.4248711306   0.0
C   15.4   -1.2124355653   0.0
C   14.0   -1.2124355653   0.0
C   13.3   -2.4248711306   0.0
C   20.3   -2.4248711306   0.0
C   19.6   -1.2124355653   0.0
C   18.2   -1.2124355653   0.0
C   17.5   -2.4248711306   0.0
C   24.5   -2.4248711306   0.0
C   23.8   -1.2124355653   0.0
C   22.4   -1.2124355653   0.0
C   21.7   -2.4248711306   0.0
C   28.7   -2.4248711306   0.0
C   28.0   -1.2124355653   0.0
C   26.6   -1.2124355653   0.0
C   25.9   -2.4248711306   0.0
C   32.9   -2.4248711306   0.0
C   32.2   -1.2124355653   0.0
C   30.8   -1.2124355653   0.0
C   30.1   -2.4248711306   0.0
C   37.1   -2.4248711306   0.0
C   36.4   -1.2124355653   0.0
C   35.0   -1.2124355653   0.0
C   34.3   -2.4248711306   0.0
C   41.3   -2.4248711306   0.0
C   40.6   -1.2124355653   0.0
C   39.2   -1.2124355653   0.0
C   38.5   -2.4248711306   0.0
C   -38.5   9.82547376793e-14   0.0
C   -39.2   1.2124355653   0.0
C   -40.6   1.2124355653   0.0
C   -41.3   9.82547376793e-14   0.0
C   -34.3   9.82547376793e-14   0.0
C   -35.0   1.2124355653   0.0
C   -36.4   1.2124355653   0.0
C   -37.1   9.82547376793e-14   0.0
C   -30.1   9.82547376793e-14   0.0
C   -30.8   1.2124355653   0.0
C   -32.2   1.2124355653   0.0
C   -32.9   9.82547376793e-14   0.0
C   -25.9   9.82547376793e-14   0.0
C   -26.6   1.2124355653   0.0
C   -28.0   1.2124355653   0.0
C   -28.7   9.82547376793e-14   0.0
C   -21.7   9.82547376793e-14   0.0
C   -22.4   1.2124355653   0.0
C   -23.8   1.2124355653   0.0
C   -24.5   9.82547376793e-14   0.0
C   -17.5   9.82547376793e-14   0.0
C   -18.2   1.2124355653   0.0
C   -19.6   1.2124355653   0.0
C   -20.3   9.82547376793e-14   0.0
C   -13.3   9.82547376793e-14   0.0
C   -14.0   1.2124355653   0.0
C   -15.4   1.2124355653   0.0
C   -16.1   9.82547376793e-14   0.0
C   -9.1   9.82547376793e-14   0.0
C   -9.8   1.2124355653   0.0
C   -11.2   1.2124355653   0.0
C   -11.9   9.82547376793e-14   0.0
C   -4.9   9.82547376793e-14   0.0
C   -5.6   1.2124355653   0.0
C   -7.0   1.2124355653   0.0
C   -7.7   9.82547376793e-14   0.0
C   -0.7   9.82547376793e-14   0.0
C   -1.4   1.2124355653   0.0
C   -2.8   1.2124355653   0.0
C   -3.5   9.82547376793e-14   0.0
C   3.5   9.82547376793e-14   0.0
C   2.8   1.2124355653   0.0
C   1.4   1.2124355653   0.0
C   0.7   9.82547376793e-14   0.0
C   7.7   9.82547376793e-14   0.0
C   7.0   1.2124355653   0.0
C   5.6   1.2124355653   0.0
C   4.9   9.82547376793e-14   0.0
C   11.9   9.82547376793e-14   0.0
C   11.2   1.2124355653   0.0
C   9.8   1.2124355653   0.0
C   9.1   9.82547376793e-14   0.0
C   16.1   9.82547376793e-14   0.0
C   15.4   1.2124355653   0.0
C   14.0   1.2124355653   0.0
C   13.3   9.82547376793e-14   0.0
C   20.3   9.82547376793e-14   0.0
C   19.6   1.2124355653   0.0
C   18.2   1.2124355653   0.0
C   17.5   9.82547376793e-14   0.0
C   24.5   9.82547376793e-14   0.0
C   23.8   1.2124355653   0.0
C   22.4   1.2124355653   0.0
C   21.7   9.82547376793e-14   0.0
C   28.7   9.82547376793e-14   0.0
C   28.0   1.2124355653   0.0
C   26.6   1.2124355653   0.0
C   25.9   9.82547376793e-14   0.0
C   32.9   9.82547376793e-14   0.0
C   32.2   1.2124355653   0.0
C   30.8   1.2124355653   0.0
C   30.1   9.82547376793e-14   0.0
C   37.1   9.82547376793e-14   0.0
C   36.4   1.2124355653   0.0
C   35.0   1.2124355653   0.0
C   34.3   9.82547376793e-14   0.0
C   41.3   9.82547376793e-14   0.0
C   40.6   1.2124355653   0.0
C   39.2   1.2124355653   0.0
C   38.5   9.82547376793e-14   0.0
C   -38.5   2.4248711306   0.0
C   -39.2   3.63730669589   0.0
C   -40.6   3.63730669589   0.0
C   -41.3   2.4248711306   0.0
C   -34.3   2.4248711306   0.0
C   -35.0   3.63730669589   0.0
C   -36.4   3.63730669589   0.0
C   -37.1   2.4248711306   0.0
C   -30.1   2.4248711306   0.0
C   -30.8   3.63730669589   0.0
C   -32.2   3.63730669589   0.0
C   -32.9   2.4248711306   0.0
C   -25.9   2.4248711306   0.0
C   -26.6   3.63730669589   0.0
C   -28.0   3.63730669589   0.0
C   -28.7   2.4248711306   0.0
C   -21.7   2.4248711306   0.0
C   -22.4   3.63730669589   0.0
C   -23.8   3.63730669589   0.0
C   -24.5   2.4248711306   0.0
C   -17.5   2.4248711306   0.0
C   -18.2   3.63730669589   0.0
C   -19.6   3.63730669589   0.0
C   -20.3   2.4248711306   0.0
C   -13.3   2.4248711306   0.0
C   -14.0   3.63730669589   0.0
C   -15.4   3.63730669589   0.0
C   -16.1   2.4248711306   0.0
C   -9.1   2.4248711306   0.0
C   -9.8   3.63730669589   0.0
C   -11.2   3.63730669589   0.0
C   -11.9   2.4248711306   0.0
C   -4.9   2.4248711306   0.0
C   -5.6   3.63730669589   0.0
C   -7.0   3.63730669589   0.0
C   -7.7   2.4248711306   0.0
C   -0.7   2.4248711306   0.0
C   -1.4   3.63730669589   0.0
C   -2.8   3.63730669589   0.0
C   -3.5   2.4248711306   0.0
C   3.5   2.4248711306   0.0
C   2.8   3.63730669589   0.0
C   1.4   3.63730669589   0.0
C   0.7   2.4248711306   0.0
C   7.7   2.4248711306   0.0
C   7.0   3.63730669589   0.0
C   5.6   3.63730669589   0.0
C   4.9   2.4248711306   0.0
C   11.9   2.4248711306   0.0
C   11.2   3.63730669589   0.0
C   9.8   3.63730669589   0.0
C   9.1   2.4248711306   0.0
C   16.1   2.4248711306   0.0
C   15.4   3.63730669589   0.0
C   14.0   3.63730669589   0.0
C   13.3   2.4248711306   0.0
C   20.3   2.4248711306   0.0
C   19.6   3.63730669589   0.0
C   18.2   3.63730669589   0.0
C   17.5   2.4248711306   0.0
C   24.5   2.4248711306   0.0
C   23.8   3.63730669589   0.0
C   22.4   3.63730669589   0.0
C   21.7   2.4248711306   0.0
C   28.7   2.4248711306   0.0
C   28.0   3.63730669589   0.0
C   26.6   3.63730669589   0.0
C   25.9   2.4248711306   0.0
C   32.9   2.4248711306   0.0
C   32.2   3.63730669589   0.0
C   30.8   3.63730669589   0.0
C   30.1   2.4248711306   0.0
C   37.1   2.4248711306   0.0
C   36.4   3.63730669589   0.0
C   35.0   3.63730669589   0.0
C   34.3   2.4248711306   0.0
C   41.3   2.4248711306   0.0
C   40.6   3.63730669589   0.0
C   39.2   3.63730669589   0.0
C   38.5   2.4248711306   0.0
H   -38.5   -4.84974226119   0.0
H   -41.3   -4.84974226119   0.0
H   -34.3   -4.84974226119   0.0
H   -37.1   -4.84974226119   0.0
H   -30.1   -4.84974226119   0.0
H   -32.9   -4.84974226119   0.0
H   -25.9   -4.84974226119   0.0
H   -28.7   -4.84974226119   0.0
H   -21.7   -4.84974226119   0.0
H   -24.5   -4.84974226119   0.0
H   -17.5   -4.84974226119   0.0
H   -20.3   -4.84974226119   0.0
H   -13.3   -4.84974226119   0.0
H   -16.1   -4.84974226119   0.0
H   -9.1   -4.84974226119   0.0
H   -11.9   -4.84974226119   0.0
H   -4.9   -4.84974226119   0.0
H   -7.7   -4.84974226119   0.0
H   -0.7   -4.84974226119   0.0
H   -3.5   -4.84974226119   0.0
H   3.5   -4.84974226119   0.0
H   0.7   -4.84974226119   0.0
H   7.7   -4.84974226119   0.0
H   4.9   -4.84974226119   0.0
H   11.9   -4.84974226119   0.0
H   9.1   -4.84974226119   0.0
H   16.1   -4.84974226119   0.0
H   13.3   -4.84974226119   0.0
H   20.3   -4.84974226119   0.0
H   17.5   -4.84974226119   0.0
H   24.5   -4.84974226119   0.0
H   21.7   -4.84974226119   0.0
H   28.7   -4.84974226119   0.0
H   25.9   -4.84974226119   0.0
H   32.9   -4.84974226119   0.0
H   30.1   -4.84974226119   0.0
H   37.1   -4.84974226119   0.0
H   34.3   -4.84974226119   0.0
H   41.3   -4.84974226119   0.0
H   38.5   -4.84974226119   0.0
H   -42.7   -2.4248711306   0.0
H   42.7   -2.4248711306   0.0
H   -42.7   9.82547376793e-14   0.0
H   42.7   9.82547376793e-14   0.0
H   -38.5   4.84974226119   0.0
H   -41.3   4.84974226119   0.0
H   -42.7   2.4248711306   0.0
H   -34.3   4.84974226119   0.0
H   -37.1   4.84974226119   0.0
H   -30.1   4.84974226119   0.0
H   -32.9   4.84974226119   0.0
H   -25.9   4.84974226119   0.0
H   -28.7   4.84974226119   0.0
H   -21.7   4.84974226119   0.0
H   -24.5   4.84974226119   0.0
H   -17.5   4.84974226119   0.0
H   -20.3   4.84974226119   0.0
H   -13.3   4.84974226119   0.0
H   -16.1   4.84974226119   0.0
H   -9.1   4.84974226119   0.0
H   -11.9   4.84974226119   0.0
H   -4.9   4.84974226119   0.0
H   -7.7   4.84974226119   0.0
H   -0.7   4.84974226119   0.0
H   -3.5   4.84974226119   0.0
H   3.5   4.84974226119   0.0
H   0.7   4.84974226119   0.0
H   7.7   4.84974226119   0.0
H   4.9   4.84974226119   0.0
H   11.9   4.84974226119   0.0
H   9.1   4.84974226119   0.0
H   16.1   4.84974226119   0.0
H   13.3   4.84974226119   0.0
H   20.3   4.84974226119   0.0
H   17.5   4.84974226119   0.0
H   24.5   4.84974226119   0.0
H   21.7   4.84974226119   0.0
H   28.7   4.84974226119   0.0
H   25.9   4.84974226119   0.0
H   32.9   4.84974226119   0.0
H   30.1   4.84974226119   0.0
H   37.1   4.84974226119   0.0
H   34.3   4.84974226119   0.0
H   42.7   2.4248711306   0.0
H   41.3   4.84974226119   0.0
H   38.5   4.84974226119   0.0
