366

C   -39.2   -3.03108891325   0.0   B
C   -40.6   -3.03108891325   0.0   A
C   -35.0   -3.03108891325   0.0   B
C   -36.4   -3.03108891325   0.0   A
C   -30.8   -3.03108891325   0.0   B
C   -32.2   -3.03108891325   0.0   A
C   -26.6   -3.03108891325   0.0   B
C   -28.0   -3.03108891325   0.0   A
C   -22.4   -3.03108891325   0.0   B
C   -23.8   -3.03108891325   0.0   A
C   -18.2   -3.03108891325   0.0   B
C   -19.6   -3.03108891325   0.0   A
C   -14.0   -3.03108891325   0.0   B
C   -15.4   -3.03108891325   0.0   A
C   -9.8   -3.03108891325   0.0   B
C   -11.2   -3.03108891325   0.0   A
C   -5.6   -3.03108891325   0.0   B
C   -7.0   -3.03108891325   0.0   A
C   -1.4   -3.03108891325   0.0   B
C   -2.8   -3.03108891325   0.0   A
C   2.8   -3.03108891325   0.0   B
C   1.4   -3.03108891325   0.0   A
C   7.0   -3.03108891325   0.0   B
C   5.6   -3.03108891325   0.0   A
C   11.2   -3.03108891325   0.0   B
C   9.8   -3.03108891325   0.0   A
C   15.4   -3.03108891325   0.0   B
C   14.0   -3.03108891325   0.0   A
C   19.6   -3.03108891325   0.0   B
C   18.2   -3.03108891325   0.0   A
C   23.8   -3.03108891325   0.0   B
C   22.4   -3.03108891325   0.0   A
C   28.0   -3.03108891325   0.0   B
C   26.6   -3.03108891325   0.0   A
C   32.2   -3.03108891325   0.0   B
C   30.8   -3.03108891325   0.0   A
C   36.4   -3.03108891325   0.0   B
C   35.0   -3.03108891325   0.0   A
C   40.6   -3.03108891325   0.0   B
C   39.2   -3.03108891325   0.0   A
C   -38.5   -1.81865334795   0.0   A
C   -39.2   -0.606217782649   0.0   B
C   -40.6   -0.606217782649   0.0   A
C   -41.3   -1.81865334795   0.0   B
C   -34.3   -1.81865334795   0.0   A
C   -35.0   -0.606217782649   0.0   B
C   -36.4   -0.606217782649   0.0   A
C   -37.1   -1.81865334795   0.0   B
C   -30.1   -1.81865334795   0.0   A
C   -30.8   -0.606217782649   0.0   B
C   -32.2   -0.606217782649   0.0   A
C   -32.9   -1.81865334795   0.0   B
C   -25.9   -1.81865334795   0.0   A
C   -26.6   -0.606217782649   0.0   B
C   -28.0   -0.606217782649   0.0   A
C   -28.7   -1.81865334795   0.0   B
C   -21.7   -1.81865334795   0.0   A
C   -22.4   -0.606217782649   0.0   B
C   -23.8   -0.606217782649   0.0   A
C   -24.5   -1.81865334795   0.0   B
C   -17.5   -1.81865334795   0.0   A
C   -18.2   -0.606217782649   0.0   B
C   -19.6   -0.606217782649   0.0   A
C   -20.3   -1.81865334795   0.0   B
C   -13.3   -1.81865334795   0.0   A
C   -14.0   -0.606217782649   0.0   B
C   -15.4   -0.606217782649   0.0   A
C   -16.1   -1.81865334795   0.0   B
C   -9.1   -1.81865334795   0.0   A
C   -9.8   -0.606217782649   0.0   B
C   -11.2   -0.606217782649   0.0   A
C   -11.9   -1.81865334795   0.0   B
C   -4.9   -1.81865334795   0.0   A
C   -5.6   -0.606217782649   0.0   B
C   -7.0   -0.606217782649   0.0   A
C   -7.7   -1.81865334795   0.0   B
C   -0.7   -1.81865334795   0.0   A
C   -1.4   -0.606217782649   0.0   B
C   -2.8   -0.606217782649   0.0   A
C   -3.5   -1.81865334795   0.0   B
C   3.5   -1.81865334795   0.0   A
C   2.8   -0.606217782649   0.0   B
C   1.4   -0.606217782649   0.0   A
C   0.7   -1.81865334795   0.0   B
C   7.7   -1.81865334795   0.0   A
C   7.0   -0.606217782649   0.0   B
C   5.6   -0.606217782649   0.0   A
C   4.9   -1.81865334795   0.0   B
C   11.9   -1.81865334795   0.0   A
C   11.2   -0.606217782649   0.0   B
C   9.8   -0.606217782649   0.0   A
C   9.1   -1.81865334795   0.0   B
C   16.1   -1.81865334795   0.0   A
C   15.4   -0.606217782649   0.0   B
C   14.0   -0.606217782649   0.0   A
C   13.3   -1.81865334795   0.0   B
C   20.3   -1.81865334795   0.0   A
C   19.6   -0.606217782649   0.0   B
C   18.2   -0.606217782649   0.0   A
C   17.5   -1.81865334795   0.0   B
C   24.5   -1.81865334795   0.0   A
C   23.8   -0.606217782649   0.0   B
C   22.4   -0.606217782649   0.0   A
C   21.7   -1.81865334795   0.0   B
C   28.7   -1.81865334795   0.0   A
C   28.0   -0.606217782649   0.0   B
C   26.6   -0.606217782649   0.0   A
C   25.9   -1.81865334795   0.0   B
C   32.9   -1.81865334795   0.0   A
C   32.2   -0.606217782649   0.0   B
C   30.8   -0.606217782649   0.0   A
C   30.1   -1.81865334795   0.0   B
C   37.1   -1.81865334795   0.0   A
C   36.4   -0.606217782649   0.0   B
C   35.0   -0.606217782649   0.0   A
C   34.3   -1.81865334795   0.0   B
C   41.3   -1.81865334795   0.0   A
C   40.6   -0.606217782649   0.0   B
C   39.2   -0.606217782649   0.0   A
C   38.5   -1.81865334795   0.0   B
C   -38.5   0.606217782649   0.0   A
C   -39.2   1.81865334795   0.0   B
C   -40.6   1.81865334795   0.0   A
C   -41.3   0.606217782649   0.0   B
C   -34.3   0.606217782649   0.0   A
C   -35.0   1.81865334795   0.0   B
C   -36.4   1.81865334795   0.0   A
C   -37.1   0.606217782649   0.0   B
C   -30.1   0.606217782649   0.0   A
C   -30.8   1.81865334795   0.0   B
C   -32.2   1.81865334795   0.0   A
C   -32.9   0.606217782649   0.0   B
C   -25.9   0.606217782649   0.0   A
C   -26.6   1.81865334795   0.0   B
C   -28.0   1.81865334795   0.0   A
C   -28.7   0.606217782649   0.0   B
C   -21.7   0.606217782649   0.0   A
C   -22.4   1.81865334795   0.0   B
C   -23.8   1.81865334795   0.0   A
C   -24.5   0.606217782649   0.0   B
C   -17.5   0.606217782649   0.0   A
C   -18.2   1.81865334795   0.0   B
C   -19.6   1.81865334795   0.0   A
C   -20.3   0.606217782649   0.0   B
C   -13.3   0.606217782649   0.0   A
C   -14.0   1.81865334795   0.0   B
C   -15.4   1.81865334795   0.0   A
C   -16.1   0.606217782649   0.0   B
C   -9.1   0.606217782649   0.0   A
C   -9.8   1.81865334795   0.0   B
C   -11.2   1.81865334795   0.0   A
C   -11.9   0.606217782649   0.0   B
C   -4.9   0.606217782649   0.0   A
C   -5.6   1.81865334795   0.0   B
C   -7.0   1.81865334795   0.0   A
C   -7.7   0.606217782649   0.0   B
C   -0.7   0.606217782649   0.0   A
C   -1.4   1.81865334795   0.0   B
C   -2.8   1.81865334795   0.0   A
C   -3.5   0.606217782649   0.0   B
C   3.5   0.606217782649   0.0   A
C   2.8   1.81865334795   0.0   B
C   1.4   1.81865334795   0.0   A
C   0.7   0.606217782649   0.0   B
C   7.7   0.606217782649   0.0   A
C   7.0   1.81865334795   0.0   B
C   5.6   1.81865334795   0.0   A
C   4.9   0.606217782649   0.0   B
C   11.9   0.606217782649   0.0   A
C   11.2   1.81865334795   0.0   B
C   9.8   1.81865334795   0.0   A
C   9.1   0.606217782649   0.0   B
C   16.1   0.606217782649   0.0   A
C   15.4   1.81865334795   0.0   B
C   14.0   1.81865334795   0.0   A
C   13.3   0.606217782649   0.0   B
C   20.3   0.606217782649   0.0   A
C   19.6   1.81865334795   0.0   B
C   18.2   1.81865334795   0.0   A
C   17.5   0.606217782649   0.0   B
C   24.5   0.606217782649   0.0   A
C   23.8   1.81865334795   0.0   B
C   22.4   1.81865334795   0.0   A
C   21.7   0.606217782649   0.0   B
C   28.7   0.606217782649   0.0   A
C   28.0   1.81865334795   0.0   B
C   26.6   1.81865334795   0.0   A
C   25.9   0.606217782649   0.0   B
C   32.9   0.606217782649   0.0   A
C   32.2   1.81865334795   0.0   B
C   30.8   1.81865334795   0.0   A
C   30.1   0.606217782649   0.0   B
C   37.1   0.606217782649   0.0   A
C   36.4   1.81865334795   0.0   B
C   35.0   1.81865334795   0.0   A
C   34.3   0.606217782649   0.0   B
C   41.3   0.606217782649   0.0   A
C   40.6   1.81865334795   0.0   B
C   39.2   1.81865334795   0.0   A
C   38.5   0.606217782649   0.0   B
C   -38.5   3.03108891325   0.0   A
C   -39.2   4.24352447854   0.0   B
C   -40.6   4.24352447854   0.0   A
C   -41.3   3.03108891325   0.0   B
C   -34.3   3.03108891325   0.0   A
C   -35.0   4.24352447854   0.0   B
C   -36.4   4.24352447854   0.0   A
C   -37.1   3.03108891325   0.0   B
C   -30.1   3.03108891325   0.0   A
C   -30.8   4.24352447854   0.0   B
C   -32.2   4.24352447854   0.0   A
C   -32.9   3.03108891325   0.0   B
C   -25.9   3.03108891325   0.0   A
C   -26.6   4.24352447854   0.0   B
C   -28.0   4.24352447854   0.0   A
C   -28.7   3.03108891325   0.0   B
C   -21.7   3.03108891325   0.0   A
C   -22.4   4.24352447854   0.0   B
C   -23.8   4.24352447854   0.0   A
C   -24.5   3.03108891325   0.0   B
C   -17.5   3.03108891325   0.0   A
C   -18.2   4.24352447854   0.0   B
C   -19.6   4.24352447854   0.0   A
C   -20.3   3.03108891325   0.0   B
C   -13.3   3.03108891325   0.0   A
C   -14.0   4.24352447854   0.0   B
C   -15.4   4.24352447854   0.0   A
C   -16.1   3.03108891325   0.0   B
C   -9.1   3.03108891325   0.0   A
C   -9.8   4.24352447854   0.0   B
C   -11.2   4.24352447854   0.0   A
C   -11.9   3.03108891325   0.0   B
C   -4.9   3.03108891325   0.0   A
C   -5.6   4.24352447854   0.0   B
C   -7.0   4.24352447854   0.0   A
C   -7.7   3.03108891325   0.0   B
C   -0.7   3.03108891325   0.0   A
C   -1.4   4.24352447854   0.0   B
C   -2.8   4.24352447854   0.0   A
C   -3.5   3.03108891325   0.0   B
C   3.5   3.03108891325   0.0   A
C   2.8   4.24352447854   0.0   B
C   1.4   4.24352447854   0.0   A
C   0.7   3.03108891325   0.0   B
C   7.7   3.03108891325   0.0   A
C   7.0   4.24352447854   0.0   B
C   5.6   4.24352447854   0.0   A
C   4.9   3.03108891325   0.0   B
C   11.9   3.03108891325   0.0   A
C   11.2   4.24352447854   0.0   B
C   9.8   4.24352447854   0.0   A
C   9.1   3.03108891325   0.0   B
C   16.1   3.03108891325   0.0   A
C   15.4   4.24352447854   0.0   B
C   14.0   4.24352447854   0.0   A
C   13.3   3.03108891325   0.0   B
C   20.3   3.03108891325   0.0   A
C   19.6   4.24352447854   0.0   B
C   18.2   4.24352447854   0.0   A
C   17.5   3.03108891325   0.0   B
C   24.5   3.03108891325   0.0   A
C   23.8   4.24352447854   0.0   B
C   22.4   4.24352447854   0.0   A
C   21.7   3.03108891325   0.0   B
C   28.7   3.03108891325   0.0   A
C   28.0   4.24352447854   0.0   B
C   26.6   4.24352447854   0.0   A
C   25.9   3.03108891325   0.0   B
C   32.9   3.03108891325   0.0   A
C   32.2   4.24352447854   0.0   B
C   30.8   4.24352447854   0.0   A
C   30.1   3.03108891325   0.0   B
C   37.1   3.03108891325   0.0   A
C   36.4   4.24352447854   0.0   B
C   35.0   4.24352447854   0.0   A
C   34.3   3.03108891325   0.0   B
C   41.3   3.03108891325   0.0   A
C   40.6   4.24352447854   0.0   B
C   39.2   4.24352447854   0.0   A
C   38.5   3.03108891325   0.0   B
H   -38.5   -4.24352447854   0.0   B
H   -41.3   -4.24352447854   0.0   A
H   -34.3   -4.24352447854   0.0   B
H   -37.1   -4.24352447854   0.0   A
H   -30.1   -4.24352447854   0.0   B
H   -32.9   -4.24352447854   0.0   A
H   -25.9   -4.24352447854   0.0   B
H   -28.7   -4.24352447854   0.0   A
H   -21.7   -4.24352447854   0.0   B
H   -24.5   -4.24352447854   0.0   A
H   -17.5   -4.24352447854   0.0   B
H   -20.3   -4.24352447854   0.0   A
H   -13.3   -4.24352447854   0.0   B
H   -16.1   -4.24352447854   0.0   A
H   -9.1   -4.24352447854   0.0   B
H   -11.9   -4.24352447854   0.0   A
H   -4.9   -4.24352447854   0.0   B
H   -7.7   -4.24352447854   0.0   A
H   -0.7   -4.24352447854   0.0   B
H   -3.5   -4.24352447854   0.0   A
H   3.5   -4.24352447854   0.0   B
H   0.7   -4.24352447854   0.0   A
H   7.7   -4.24352447854   0.0   B
H   4.9   -4.24352447854   0.0   A
H   11.9   -4.24352447854   0.0   B
H   9.1   -4.24352447854   0.0   A
H   16.1   -4.24352447854   0.0   B
H   13.3   -4.24352447854   0.0   A
H   20.3   -4.24352447854   0.0   B
H   17.5   -4.24352447854   0.0   A
H   24.5   -4.24352447854   0.0   B
H   21.7   -4.24352447854   0.0   A
H   28.7   -4.24352447854   0.0   B
H   25.9   -4.24352447854   0.0   A
H   32.9   -4.24352447854   0.0   B
H   30.1   -4.24352447854   0.0   A
H   37.1   -4.24352447854   0.0   B
H   34.3   -4.24352447854   0.0   A
H   41.3   -4.24352447854   0.0   B
H   38.5   -4.24352447854   0.0   A
H   -42.7   -1.81865334795   0.0   A
H   42.7   -1.81865334795   0.0   B
H   -42.7   0.606217782649   0.0   A
H   42.7   0.606217782649   0.0   B
H   -38.5   5.45596004384   0.0   A
H   -41.3   5.45596004384   0.0   B
H   -42.7   3.03108891325   0.0   A
H   -34.3   5.45596004384   0.0   B
H   -37.1   5.45596004384   0.0   A
H   -30.1   5.45596004384   0.0   B
H   -32.9   5.45596004384   0.0   A
H   -25.9   5.45596004384   0.0   B
H   -28.7   5.45596004384   0.0   A
H   -21.7   5.45596004384   0.0   B
H   -24.5   5.45596004384   0.0   A
H   -17.5   5.45596004384   0.0   B
H   -20.3   5.45596004384   0.0   A
H   -13.3   5.45596004384   0.0   B
H   -16.1   5.45596004384   0.0   A
H   -9.1   5.45596004384   0.0   B
H   -11.9   5.45596004384   0.0   A
H   -4.9   5.45596004384   0.0   B
H   -7.7   5.45596004384   0.0   A
H   -0.7   5.45596004384   0.0   B
H   -3.5   5.45596004384   0.0   A
H   3.5   5.45596004384   0.0   B
H   0.7   5.45596004384   0.0   A
H   7.7   5.45596004384   0.0   B
H   4.9   5.45596004384   0.0   A
H   11.9   5.45596004384   0.0   B
H   9.1   5.45596004384   0.0   A
H   16.1   5.45596004384   0.0   B
H   13.3   5.45596004384   0.0   A
H   20.3   5.45596004384   0.0   B
H   17.5   5.45596004384   0.0   A
H   24.5   5.45596004384   0.0   B
H   21.7   5.45596004384   0.0   A
H   28.7   5.45596004384   0.0   B
H   25.9   5.45596004384   0.0   A
H   32.9   5.45596004384   0.0   B
H   30.1   5.45596004384   0.0   A
H   37.1   5.45596004384   0.0   B
H   34.3   5.45596004384   0.0   A
H   42.7   3.03108891325   0.0   B
H   41.3   5.45596004384   0.0   A
H   38.5   5.45596004384   0.0   B
