132

C   -11.9   -3.03108891325   0.0   -1
C   -13.3   -3.03108891325   0.0   1
C   -7.7   -3.03108891325   0.0   -1
C   -9.1   -3.03108891325   0.0   1
C   -3.5   -3.03108891325   0.0   -1
C   -4.9   -3.03108891325   0.0   1
C   0.7   -3.03108891325   0.0   -1
C   -0.7   -3.03108891325   0.0   1
C   4.9   -3.03108891325   0.0   -1
C   3.5   -3.03108891325   0.0   1
C   9.1   -3.03108891325   0.0   -1
C   7.7   -3.03108891325   0.0   1
C   13.3   -3.03108891325   0.0   -1
C   11.9   -3.03108891325   0.0   1
C   -11.2   -1.81865334795   0.0   1
C   -11.9   -0.606217782649   0.0   -1
C   -13.3   -0.606217782649   0.0   1
C   -14.0   -1.81865334795   0.0   -1
C   -7.0   -1.81865334795   0.0   1
C   -7.7   -0.606217782649   0.0   -1
C   -9.1   -0.606217782649   0.0   1
C   -9.8   -1.81865334795   0.0   -1
C   -2.8   -1.81865334795   0.0   1
C   -3.5   -0.606217782649   0.0   -1
C   -4.9   -0.606217782649   0.0   1
C   -5.6   -1.81865334795   0.0   -1
C   1.4   -1.81865334795   0.0   1
C   0.7   -0.606217782649   0.0   -1
C   -0.7   -0.606217782649   0.0   1
C   -1.4   -1.81865334795   0.0   -1
C   5.6   -1.81865334795   0.0   1
C   4.9   -0.606217782649   0.0   -1
C   3.5   -0.606217782649   0.0   1
C   2.8   -1.81865334795   0.0   -1
C   9.8   -1.81865334795   0.0   1
C   9.1   -0.606217782649   0.0   -1
C   7.7   -0.606217782649   0.0   1
C   7.0   -1.81865334795   0.0   -1
C   14.0   -1.81865334795   0.0   1
C   13.3   -0.606217782649   0.0   -1
C   11.9   -0.606217782649   0.0   1
C   11.2   -1.81865334795   0.0   -1
C   -11.2   0.606217782649   0.0   1
C   -11.9   1.81865334795   0.0   -1
C   -13.3   1.81865334795   0.0   1
C   -14.0   0.606217782649   0.0   -1
C   -7.0   0.606217782649   0.0   1
C   -7.7   1.81865334795   0.0   -1
C   -9.1   1.81865334795   0.0   1
C   -9.8   0.606217782649   0.0   -1
C   -2.8   0.606217782649   0.0   1
C   -3.5   1.81865334795   0.0   -1
C   -4.9   1.81865334795   0.0   1
C   -5.6   0.606217782649   0.0   -1
C   1.4   0.606217782649   0.0   1
C   0.7   1.81865334795   0.0   -1
C   -0.7   1.81865334795   0.0   1
C   -1.4   0.606217782649   0.0   -1
C   5.6   0.606217782649   0.0   1
C   4.9   1.81865334795   0.0   -1
C   3.5   1.81865334795   0.0   1
C   2.8   0.606217782649   0.0   -1
C   9.8   0.606217782649   0.0   1
C   9.1   1.81865334795   0.0   -1
C   7.7   1.81865334795   0.0   1
C   7.0   0.606217782649   0.0   -1
C   14.0   0.606217782649   0.0   1
C   13.3   1.81865334795   0.0   -1
C   11.9   1.81865334795   0.0   1
C   11.2   0.606217782649   0.0   -1
C   -11.2   3.03108891325   0.0   1
C   -11.9   4.24352447854   0.0   -1
C   -13.3   4.24352447854   0.0   1
C   -14.0   3.03108891325   0.0   -1
C   -7.0   3.03108891325   0.0   1
C   -7.7   4.24352447854   0.0   -1
C   -9.1   4.24352447854   0.0   1
C   -9.8   3.03108891325   0.0   -1
C   -2.8   3.03108891325   0.0   1
C   -3.5   4.24352447854   0.0   -1
C   -4.9   4.24352447854   0.0   1
C   -5.6   3.03108891325   0.0   -1
C   1.4   3.03108891325   0.0   1
C   0.7   4.24352447854   0.0   -1
C   -0.7   4.24352447854   0.0   1
C   -1.4   3.03108891325   0.0   -1
C   5.6   3.03108891325   0.0   1
C   4.9   4.24352447854   0.0   -1
C   3.5   4.24352447854   0.0   1
C   2.8   3.03108891325   0.0   -1
C   9.8   3.03108891325   0.0   1
C   9.1   4.24352447854   0.0   -1
C   7.7   4.24352447854   0.0   1
C   7.0   3.03108891325   0.0   -1
C   14.0   3.03108891325   0.0   1
C   13.3   4.24352447854   0.0   -1
C   11.9   4.24352447854   0.0   1
C   11.2   3.03108891325   0.0   -1
H   -11.2   -4.24352447854   0.0   -1
H   -14.0   -4.24352447854   0.0   1
H   -7.0   -4.24352447854   0.0   -1
H   -9.8   -4.24352447854   0.0   1
H   -2.8   -4.24352447854   0.0   -1
H   -5.6   -4.24352447854   0.0   1
H   1.4   -4.24352447854   0.0   -1
H   -1.4   -4.24352447854   0.0   1
H   5.6   -4.24352447854   0.0   -1
H   2.8   -4.24352447854   0.0   1
H   9.8   -4.24352447854   0.0   -1
H   7.0   -4.24352447854   0.0   1
H   14.0   -4.24352447854   0.0   -1
H   11.2   -4.24352447854   0.0   1
H   -15.4   -1.81865334795   0.0   1
H   15.4   -1.81865334795   0.0   -1
H   -15.4   0.606217782649   0.0   1
H   15.4   0.606217782649   0.0   -1
H   -11.2   5.45596004384   0.0   1
H   -14.0   5.45596004384   0.0   -1
H   -15.4   3.03108891325   0.0   1
H   -7.0   5.45596004384   0.0   -1
H   -9.8   5.45596004384   0.0   1
H   -2.8   5.45596004384   0.0   -1
H   -5.6   5.45596004384   0.0   1
H   1.4   5.45596004384   0.0   -1
H   -1.4   5.45596004384   0.0   1
H   5.6   5.45596004384   0.0   -1
H   2.8   5.45596004384   0.0   1
H   9.8   5.45596004384   0.0   -1
H   7.0   5.45596004384   0.0   1
H   15.4   3.03108891325   0.0   -1
H   14.0   5.45596004384   0.0   1
H   11.2   5.45596004384   0.0   -1
