150

C   -14.0   -3.63730669589   0.0
C   -15.4   -3.63730669589   0.0
C   -9.8   -3.63730669589   0.0
C   -11.2   -3.63730669589   0.0
C   -5.6   -3.63730669589   0.0
C   -7.0   -3.63730669589   0.0
C   -1.4   -3.63730669589   0.0
C   -2.8   -3.63730669589   0.0
C   2.8   -3.63730669589   0.0
C   1.4   -3.63730669589   0.0
C   7.0   -3.63730669589   0.0
C   5.6   -3.63730669589   0.0
C   11.2   -3.63730669589   0.0
C   9.8   -3.63730669589   0.0
C   15.4   -3.63730669589   0.0
C   14.0   -3.63730669589   0.0
C   -13.3   -2.4248711306   0.0
C   -14.0   -1.2124355653   0.0
C   -15.4   -1.2124355653   0.0
C   -16.1   -2.4248711306   0.0
C   -9.1   -2.4248711306   0.0
C   -9.8   -1.2124355653   0.0
C   -11.2   -1.2124355653   0.0
C   -11.9   -2.4248711306   0.0
C   -4.9   -2.4248711306   0.0
C   -5.6   -1.2124355653   0.0
C   -7.0   -1.2124355653   0.0
C   -7.7   -2.4248711306   0.0
C   -0.7   -2.4248711306   0.0
C   -1.4   -1.2124355653   0.0
C   -2.8   -1.2124355653   0.0
C   -3.5   -2.4248711306   0.0
C   3.5   -2.4248711306   0.0
C   2.8   -1.2124355653   0.0
C   1.4   -1.2124355653   0.0
C   0.7   -2.4248711306   0.0
C   7.7   -2.4248711306   0.0
C   7.0   -1.2124355653   0.0
C   5.6   -1.2124355653   0.0
C   4.9   -2.4248711306   0.0
C   11.9   -2.4248711306   0.0
C   11.2   -1.2124355653   0.0
C   9.8   -1.2124355653   0.0
C   9.1   -2.4248711306   0.0
C   16.1   -2.4248711306   0.0
C   15.4   -1.2124355653   0.0
C   14.0   -1.2124355653   0.0
C   13.3   -2.4248711306   0.0
C   -13.3   -4.4408920985e-16   0.0
C   -14.0   1.2124355653   0.0
C   -15.4   1.2124355653   0.0
C   -16.1   -4.4408920985e-16   0.0
C   -9.1   -4.4408920985e-16   0.0
C   -9.8   1.2124355653   0.0
C   -11.2   1.2124355653   0.0
C   -11.9   -4.4408920985e-16   0.0
C   -4.9   -4.4408920985e-16   0.0
C   -5.6   1.2124355653   0.0
C   -7.0   1.2124355653   0.0
C   -7.7   -4.4408920985e-16   0.0
C   -0.7   -4.4408920985e-16   0.0
C   -1.4   1.2124355653   0.0
C   -2.8   1.2124355653   0.0
C   -3.5   -4.4408920985e-16   0.0
C   3.5   -4.4408920985e-16   0.0
C   2.8   1.2124355653   0.0
C   1.4   1.2124355653   0.0
C   0.7   -4.4408920985e-16   0.0
C   7.7   -4.4408920985e-16   0.0
C   7.0   1.2124355653   0.0
C   5.6   1.2124355653   0.0
C   4.9   -4.4408920985e-16   0.0
C   11.9   -4.4408920985e-16   0.0
C   11.2   1.2124355653   0.0
C   9.8   1.2124355653   0.0
C   9.1   -4.4408920985e-16   0.0
C   16.1   -4.4408920985e-16   0.0
C   15.4   1.2124355653   0.0
C   14.0   1.2124355653   0.0
C   13.3   -4.4408920985e-16   0.0
C   -13.3   2.4248711306   0.0
C   -14.0   3.63730669589   0.0
C   -15.4   3.63730669589   0.0
C   -16.1   2.4248711306   0.0
C   -9.1   2.4248711306   0.0
C   -9.8   3.63730669589   0.0
C   -11.2   3.63730669589   0.0
C   -11.9   2.4248711306   0.0
C   -4.9   2.4248711306   0.0
C   -5.6   3.63730669589   0.0
C   -7.0   3.63730669589   0.0
C   -7.7   2.4248711306   0.0
C   -0.7   2.4248711306   0.0
C   -1.4   3.63730669589   0.0
C   -2.8   3.63730669589   0.0
C   -3.5   2.4248711306   0.0
C   3.5   2.4248711306   0.0
C   2.8   3.63730669589   0.0
C   1.4   3.63730669589   0.0
C   0.7   2.4248711306   0.0
C   7.7   2.4248711306   0.0
C   7.0   3.63730669589   0.0
C   5.6   3.63730669589   0.0
C   4.9   2.4248711306   0.0
C   11.9   2.4248711306   0.0
C   11.2   3.63730669589   0.0
C   9.8   3.63730669589   0.0
C   9.1   2.4248711306   0.0
C   16.1   2.4248711306   0.0
C   15.4   3.63730669589   0.0
C   14.0   3.63730669589   0.0
C   13.3   2.4248711306   0.0
H   -13.3   -4.84974226119   0.0
H   -16.1   -4.84974226119   0.0
H   -9.1   -4.84974226119   0.0
H   -11.9   -4.84974226119   0.0
H   -4.9   -4.84974226119   0.0
H   -7.7   -4.84974226119   0.0
H   -0.7   -4.84974226119   0.0
H   -3.5   -4.84974226119   0.0
H   3.5   -4.84974226119   0.0
H   0.7   -4.84974226119   0.0
H   7.7   -4.84974226119   0.0
H   4.9   -4.84974226119   0.0
H   11.9   -4.84974226119   0.0
H   9.1   -4.84974226119   0.0
H   16.1   -4.84974226119   0.0
H   13.3   -4.84974226119   0.0
H   -17.5   -2.4248711306   0.0
H   17.5   -2.4248711306   0.0
H   -17.5   2.88657986403e-15   0.0
H   17.5   -6.43929354283e-15   0.0
H   -13.3   4.84974226119   0.0
H   -16.1   4.84974226119   0.0
H   -17.5   2.4248711306   0.0
H   -9.1   4.84974226119   0.0
H   -11.9   4.84974226119   0.0
H   -4.9   4.84974226119   0.0
H   -7.7   4.84974226119   0.0
H   -0.7   4.84974226119   0.0
H   -3.5   4.84974226119   0.0
H   3.5   4.84974226119   0.0
H   0.7   4.84974226119   0.0
H   7.7   4.84974226119   0.0
H   4.9   4.84974226119   0.0
H   11.9   4.84974226119   0.0
H   9.1   4.84974226119   0.0
H   17.5   2.4248711306   0.0
H   16.1   4.84974226119   0.0
H   13.3   4.84974226119   0.0
