186

C   -18.2   -3.03108891325   0.0   -1
C   -19.6   -3.03108891325   0.0   1
C   -14.0   -3.03108891325   0.0   -1
C   -15.4   -3.03108891325   0.0   1
C   -9.8   -3.03108891325   0.0   -1
C   -11.2   -3.03108891325   0.0   1
C   -5.6   -3.03108891325   0.0   -1
C   -7.0   -3.03108891325   0.0   1
C   -1.4   -3.03108891325   0.0   -1
C   -2.8   -3.03108891325   0.0   1
C   2.8   -3.03108891325   0.0   -1
C   1.4   -3.03108891325   0.0   1
C   7.0   -3.03108891325   0.0   -1
C   5.6   -3.03108891325   0.0   1
C   11.2   -3.03108891325   0.0   -1
C   9.8   -3.03108891325   0.0   1
C   15.4   -3.03108891325   0.0   -1
C   14.0   -3.03108891325   0.0   1
C   19.6   -3.03108891325   0.0   -1
C   18.2   -3.03108891325   0.0   1
C   -17.5   -1.81865334795   0.0   1
C   -18.2   -0.606217782649   0.0   -1
C   -19.6   -0.606217782649   0.0   1
C   -20.3   -1.81865334795   0.0   -1
C   -13.3   -1.81865334795   0.0   1
C   -14.0   -0.606217782649   0.0   -1
C   -15.4   -0.606217782649   0.0   1
C   -16.1   -1.81865334795   0.0   -1
C   -9.1   -1.81865334795   0.0   1
C   -9.8   -0.606217782649   0.0   -1
C   -11.2   -0.606217782649   0.0   1
C   -11.9   -1.81865334795   0.0   -1
C   -4.9   -1.81865334795   0.0   1
C   -5.6   -0.606217782649   0.0   -1
C   -7.0   -0.606217782649   0.0   1
C   -7.7   -1.81865334795   0.0   -1
C   -0.7   -1.81865334795   0.0   1
C   -1.4   -0.606217782649   0.0   -1
C   -2.8   -0.606217782649   0.0   1
C   -3.5   -1.81865334795   0.0   -1
C   3.5   -1.81865334795   0.0   1
C   2.8   -0.606217782649   0.0   -1
C   1.4   -0.606217782649   0.0   1
C   0.7   -1.81865334795   0.0   -1
C   7.7   -1.81865334795   0.0   1
C   7.0   -0.606217782649   0.0   -1
C   5.6   -0.606217782649   0.0   1
C   4.9   -1.81865334795   0.0   -1
C   11.9   -1.81865334795   0.0   1
C   11.2   -0.606217782649   0.0   -1
C   9.8   -0.606217782649   0.0   1
C   9.1   -1.81865334795   0.0   -1
C   16.1   -1.81865334795   0.0   1
C   15.4   -0.606217782649   0.0   -1
C   14.0   -0.606217782649   0.0   1
C   13.3   -1.81865334795   0.0   -1
C   20.3   -1.81865334795   0.0   1
C   19.6   -0.606217782649   0.0   -1
C   18.2   -0.606217782649   0.0   1
C   17.5   -1.81865334795   0.0   -1
C   -17.5   0.606217782649   0.0   1
C   -18.2   1.81865334795   0.0   -1
C   -19.6   1.81865334795   0.0   1
C   -20.3   0.606217782649   0.0   -1
C   -13.3   0.606217782649   0.0   1
C   -14.0   1.81865334795   0.0   -1
C   -15.4   1.81865334795   0.0   1
C   -16.1   0.606217782649   0.0   -1
C   -9.1   0.606217782649   0.0   1
C   -9.8   1.81865334795   0.0   -1
C   -11.2   1.81865334795   0.0   1
C   -11.9   0.606217782649   0.0   -1
C   -4.9   0.606217782649   0.0   1
C   -5.6   1.81865334795   0.0   -1
C   -7.0   1.81865334795   0.0   1
C   -7.7   0.606217782649   0.0   -1
C   -0.7   0.606217782649   0.0   1
C   -1.4   1.81865334795   0.0   -1
C   -2.8   1.81865334795   0.0   1
C   -3.5   0.606217782649   0.0   -1
C   3.5   0.606217782649   0.0   1
C   2.8   1.81865334795   0.0   -1
C   1.4   1.81865334795   0.0   1
C   0.7   0.606217782649   0.0   -1
C   7.7   0.606217782649   0.0   1
C   7.0   1.81865334795   0.0   -1
C   5.6   1.81865334795   0.0   1
C   4.9   0.606217782649   0.0   -1
C   11.9   0.606217782649   0.0   1
C   11.2   1.81865334795   0.0   -1
C   9.8   1.81865334795   0.0   1
C   9.1   0.606217782649   0.0   -1
C   16.1   0.606217782649   0.0   1
C   15.4   1.81865334795   0.0   -1
C   14.0   1.81865334795   0.0   1
C   13.3   0.606217782649   0.0   -1
C   20.3   0.606217782649   0.0   1
C   19.6   1.81865334795   0.0   -1
C   18.2   1.81865334795   0.0   1
C   17.5   0.606217782649   0.0   -1
C   -17.5   3.03108891325   0.0   1
C   -18.2   4.24352447854   0.0   -1
C   -19.6   4.24352447854   0.0   1
C   -20.3   3.03108891325   0.0   -1
C   -13.3   3.03108891325   0.0   1
C   -14.0   4.24352447854   0.0   -1
C   -15.4   4.24352447854   0.0   1
C   -16.1   3.03108891325   0.0   -1
C   -9.1   3.03108891325   0.0   1
C   -9.8   4.24352447854   0.0   -1
C   -11.2   4.24352447854   0.0   1
C   -11.9   3.03108891325   0.0   -1
C   -4.9   3.03108891325   0.0   1
C   -5.6   4.24352447854   0.0   -1
C   -7.0   4.24352447854   0.0   1
C   -7.7   3.03108891325   0.0   -1
C   -0.7   3.03108891325   0.0   1
C   -1.4   4.24352447854   0.0   -1
C   -2.8   4.24352447854   0.0   1
C   -3.5   3.03108891325   0.0   -1
C   3.5   3.03108891325   0.0   1
C   2.8   4.24352447854   0.0   -1
C   1.4   4.24352447854   0.0   1
C   0.7   3.03108891325   0.0   -1
C   7.7   3.03108891325   0.0   1
C   7.0   4.24352447854   0.0   -1
C   5.6   4.24352447854   0.0   1
C   4.9   3.03108891325   0.0   -1
C   11.9   3.03108891325   0.0   1
C   11.2   4.24352447854   0.0   -1
C   9.8   4.24352447854   0.0   1
C   9.1   3.03108891325   0.0   -1
C   16.1   3.03108891325   0.0   1
C   15.4   4.24352447854   0.0   -1
C   14.0   4.24352447854   0.0   1
C   13.3   3.03108891325   0.0   -1
C   20.3   3.03108891325   0.0   1
C   19.6   4.24352447854   0.0   -1
C   18.2   4.24352447854   0.0   1
C   17.5   3.03108891325   0.0   -1
H   -17.5   -4.24352447854   0.0   -1
H   -20.3   -4.24352447854   0.0   1
H   -13.3   -4.24352447854   0.0   -1
H   -16.1   -4.24352447854   0.0   1
H   -9.1   -4.24352447854   0.0   -1
H   -11.9   -4.24352447854   0.0   1
H   -4.9   -4.24352447854   0.0   -1
H   -7.7   -4.24352447854   0.0   1
H   -0.7   -4.24352447854   0.0   -1
H   -3.5   -4.24352447854   0.0   1
H   3.5   -4.24352447854   0.0   -1
H   0.7   -4.24352447854   0.0   1
H   7.7   -4.24352447854   0.0   -1
H   4.9   -4.24352447854   0.0   1
H   11.9   -4.24352447854   0.0   -1
H   9.1   -4.24352447854   0.0   1
H   16.1   -4.24352447854   0.0   -1
H   13.3   -4.24352447854   0.0   1
H   20.3   -4.24352447854   0.0   -1
H   17.5   -4.24352447854   0.0   1
H   -21.7   -1.81865334795   0.0   1
H   21.7   -1.81865334795   0.0   -1
H   -21.7   0.606217782649   0.0   1
H   21.7   0.606217782649   0.0   -1
H   -17.5   5.45596004384   0.0   1
H   -20.3   5.45596004384   0.0   -1
H   -21.7   3.03108891325   0.0   1
H   -13.3   5.45596004384   0.0   -1
H   -16.1   5.45596004384   0.0   1
H   -9.1   5.45596004384   0.0   -1
H   -11.9   5.45596004384   0.0   1
H   -4.9   5.45596004384   0.0   -1
H   -7.7   5.45596004384   0.0   1
H   -0.7   5.45596004384   0.0   -1
H   -3.5   5.45596004384   0.0   1
H   3.5   5.45596004384   0.0   -1
H   0.7   5.45596004384   0.0   1
H   7.7   5.45596004384   0.0   -1
H   4.9   5.45596004384   0.0   1
H   11.9   5.45596004384   0.0   -1
H   9.1   5.45596004384   0.0   1
H   16.1   5.45596004384   0.0   -1
H   13.3   5.45596004384   0.0   1
H   21.7   3.03108891325   0.0   -1
H   20.3   5.45596004384   0.0   1
H   17.5   5.45596004384   0.0   -1
